# created with PyMOL 2.4.1
@<TRIPOS>MOLECULE
obj01
4 3 1                   
SMALL
USER_CHARGES
@<TRIPOS>ATOM
1	 C01	2.0	-1.0	 0.0	C.3	1	UNK1	0.000	
2	 Br1	3.0	 1.0	 2.0	Br	1	UNK1	0.000	
3	 C02	3.0	 0.0	 0.0	C.3	1	UNK1	0.000	
4	 Cl1	2.0	-3.0	 0.0	Cl	1	UNK1	0.000	
@<TRIPOS>BOND
1 1 3 1
2 1 4 1
3 2 3 1
@<TRIPOS>SUBSTRUCTURE
1	UNK1	1	GROUP	1 ****	UNK
